FC=$(FCOMPILER)
LD=$(FC)
FPP=$(FC) -E
MAKE=make
INCLUDES=-I. -I$(INCPATH) -I$(MODPATH) -J$(MODPATH)
DEFINES= $(DEFINEVAL) $(DEBUGDEF)
FCFLAGS= $(FOPTFLAGS) -m64 -fbacktrace $(REALLOCLHS) -fPIC $(WARN)
EXEFLAGS= $(OPTFLAGS) -m64 -fbacktrace $(REALLOCLHS) -fPIC $(WARN)
LDFLAGS= -fPIC
MOD=mod
SMOD=smod
RULES=Linux_gcc
AR=ar rcs
RANLIB=ranlib
