BASEPATH=$(THISDIR)
FORIGESPATH=$(BASEPATH)
FORIGESLIBPATH=$(LIBPATH)
FORIGESBINPATH=$(BINPATH)
FORIGESMODPATH=$(MODPATH)
FORIGESINCPATH=$(INCPATH)
FORIGESSRCPATH=$(SRCPATH)
